           5
ref Ref-Mol
C     -0.000000020   0.000000090   0.000000000     1.0
H      0.356654400  -1.008809920   0.000000000     1.0
H      0.356672820   0.504398280   0.873651500     1.0
H      0.356672820   0.504398280  -0.873651500     1.0
H     -1.070000020   0.000013270   0.000000000     1.0
           5
rot-1 RMSD(Fit)=    1.105091 minRMSD=    1.105091
C     -0.000000009  -0.000000079  -0.000000043
H      0.010807180   0.894663639   0.586821939
H      0.585044187  -0.752511142   0.486158768
H      0.411518059   0.202541168  -0.966710920
H     -1.007369417  -0.344693585  -0.106269743
           5
rot-1 RMSD(Fit)=    0.000000 minRMSD=    0.000000
C     -0.000000038  -0.000000047  -0.000000068
H      0.356672756   0.504398286   0.873651374
H      0.356654492  -1.008810012   0.000000060
H      0.356672822   0.504398383  -0.873651424
H     -1.070000032   0.000013391   0.000000057
           5
rot-1 RMSD(Fit)=    0.000000 minRMSD=    0.000000
C     -0.000000038  -0.000000035   0.000000074
H      0.356672756   0.504398562  -0.873651215
H      0.356673101   0.504398478   0.873651270
H      0.356654213  -1.008810098   0.000000100
H     -1.070000032   0.000013092  -0.000000230
           5
rot-1 RMSD(Fit)=    1.105091 minRMSD=    0.000000
C      0.000000027   0.000000066   0.000000056
H     -0.334030318  -0.683330356  -0.752584335
H      1.047819775   0.179713440  -0.121148115
H     -0.180424641  -0.419191019   0.967794337
H     -0.533364843   0.922807870  -0.094061943
           5
rot-1 RMSD(Fit)=    0.000000 minRMSD=    0.000000
C     -0.000000038   0.000000082  -0.000000007
H      0.356654147  -1.008810006  -0.000000160
H      0.356673101   0.504398375  -0.873651329
H      0.356672822   0.504398556   0.873651324
H     -1.070000032   0.000012993   0.000000172
           5
rot-1 RMSD(Fit)=    1.105091 minRMSD=    0.000000
C     -0.000000006   0.000000061  -0.000000067
H     -0.052732418  -0.735090580   0.775732519
H      0.029024789  -0.487568772  -0.952015925
H      0.884387244   0.588920960   0.126219433
H     -0.860679609   0.633738331   0.050064039
           5
rot-1 RMSD(Fit)=    0.000000 minRMSD=    0.000000
C     -0.000000020  -0.000000047  -0.000000074
H      0.356673012   0.504398381   0.873651215
H      0.356672819   0.504398678  -0.873651270
H     -1.070000019   0.000013101  -0.000000100
H      0.356654208  -1.008810113   0.000000230
           5
rot-1 RMSD(Fit)=    1.105091 minRMSD=    0.000000
C     -0.000000079  -0.000000044   0.000000004
H      0.985541514   0.416654428  -0.002611919
H     -0.133280554  -0.606152493  -0.871616611
H     -0.721345039   0.790290629  -0.001448046
H     -0.130915841  -0.600792520   0.875676572
           5
rot-1 RMSD(Fit)=    0.000000 minRMSD=    0.000000
C     -0.000000020   0.000000088  -0.000000004
H      0.356654403  -1.008809916   0.000000003
H      0.356672819   0.504398275   0.873651502
H     -1.070000019   0.000013274   0.000000000
H      0.356672818   0.504398279  -0.873651502
           5
rot-1 RMSD(Fit)=    1.105091 minRMSD=    0.000000
C     -0.000000023   0.000000088  -0.000000002
H      0.382206227  -0.999290311  -0.015397546
H      0.331121446   0.494851987   0.889033276
H     -1.069542581  -0.026926086  -0.015927765
H      0.356214931   0.531364322  -0.857707963
           5
rot-1 RMSD(Fit)=    1.105091 minRMSD=    0.000000
C     -0.000000023   0.000000087  -0.000000006
H      0.390928232  -0.995677748   0.026471681
H      0.355733537   0.545530911   0.848969813
H     -1.069179389  -0.035923239   0.021563755
H      0.322517644   0.486069989  -0.897005242
           5
rot-1 RMSD(Fit)=    0.000000 minRMSD=    0.000000
C     -0.000000020  -0.000000041   0.000000078
H      0.356673012   0.504398376  -0.873651218
H      0.356654209  -1.008810112  -0.000000233
H     -1.070000019   0.000013101   0.000000100
H      0.356672818   0.504398676   0.873651272
           5
rot-1 RMSD(Fit)=    1.105091 minRMSD=    0.000000
C      0.000000006   0.000000062   0.000000065
H     -0.154622906  -0.797766392  -0.696103692
H     -0.788679536   0.716478575  -0.097688834
H      0.938395250   0.472764760  -0.202009599
H      0.004907187  -0.391477005   0.995802060
           5
rot-1 RMSD(Fit)=    0.000000 minRMSD=    0.000000
C     -0.000000032  -0.000000051   0.000000068
H      0.356672752   0.504398289  -0.873651374
H     -1.070000031   0.000013393  -0.000000060
H      0.356672821   0.504398383   0.873651424
H      0.356654490  -1.008810014  -0.000000057
           5
rot-1 RMSD(Fit)=    1.105091 minRMSD=    0.000000
C      0.000000035   0.000000062  -0.000000056
H     -0.338185099  -0.680907538   0.752924680
H     -0.526867889   0.926501728   0.094365473
H     -0.184083774  -0.418037685  -0.967604102
H      1.049136727   0.172443433   0.120314006
           5
rot-1 RMSD(Fit)=    0.000000 minRMSD=    0.000000
C     -0.000000032   0.000000084   0.000000011
H      0.356654142  -1.008810008   0.000000157
H     -1.070000031   0.000012990  -0.000000173
H      0.356672821   0.504398556  -0.873651324
H      0.356673099   0.504398378   0.873651330
           5
rot-1 RMSD(Fit)=    1.105091 minRMSD=    0.000000
C      0.000000000  -0.000000081   0.000000040
H     -0.007573067   0.894366236  -0.587325714
H     -1.000747652  -0.361847630   0.111671381
H      0.412986864   0.210143912   0.964459137
H      0.595333855  -0.742662437  -0.488804845
           5
rot-1 RMSD(Fit)=    0.000000 minRMSD=    0.000000
C     -0.000000032  -0.000000033  -0.000000078
H      0.356672752   0.504398560   0.873651218
H     -1.070000031   0.000013093   0.000000233
H      0.356654212  -1.008810098  -0.000000100
H      0.356673099   0.504398477  -0.873651272
           5
rot-1 RMSD(Fit)=    1.105091 minRMSD=    0.000000
C     -0.000000028   0.000000051   0.000000069
H      0.203668705  -0.646200166  -0.828157119
H     -0.439447909   0.908321361  -0.356002679
H      0.912918409   0.222179698   0.511972851
H     -0.677139178  -0.484300944   0.672186877
           5
rot-1 RMSD(Fit)=    0.000000 minRMSD=    0.000000
C      0.000000090   0.000000010   0.000000004
H     -1.069999911   0.000013341  -0.000000003
H      0.356672721   0.504398344  -0.873651502
H      0.356654376  -1.008810040  -0.000000000
H      0.356672724   0.504398344   0.873651502
           5
rot-1 RMSD(Fit)=    1.105091 minRMSD=    0.000000
C     -0.000000019   0.000000063  -0.000000063
H      0.118864539  -0.701359894   0.799290517
H     -0.700876232  -0.384918006  -0.710992759
H      0.943619028   0.158128449  -0.479039210
H     -0.361607316   0.928149389   0.390741514
           5
rot-1 RMSD(Fit)=    0.000000 minRMSD=    0.000000
C      0.000000090  -0.000000008   0.000000007
H     -1.069999911   0.000013070   0.000000160
H      0.356672721   0.504398644   0.873651329
H      0.356672985   0.504398441  -0.873651324
H      0.356654115  -1.008810146  -0.000000172
           5
rot-1 RMSD(Fit)=    1.105091 minRMSD=    0.000000
C      0.000000020  -0.000000088  -0.000000004
H     -0.354462354   1.009580666   0.001768493
H     -0.359210829  -0.505657149   0.871882157
H      1.069996006  -0.002340996   0.001763063
H     -0.356322844  -0.501582433  -0.875413710
           5
rot-1 RMSD(Fit)=    0.000000 minRMSD=    0.000000
C      0.000000090  -0.000000002  -0.000000011
H     -1.069999911   0.000013065  -0.000000157
H      0.356654112  -1.008810147   0.000000173
H      0.356672985   0.504398440   0.873651324
H      0.356672724   0.504398643  -0.873651330
